<additional><poly id="1000" color="blue" type="line" lineWidth="0.5" layer="10" shape="1452.68,1038.97 1451.24,1053.65" /><poly id="1001" color="blue" type="line" lineWidth="0.5" layer="10" shape="1437.18,1076.19 1423.42,1089.02" /><poly id="1002" color="blue" type="line" lineWidth="0.5" layer="10" shape="1466.92,1066.92 1460.74,1085.17" /><poly id="1003" color="blue" type="line" lineWidth="0.5" layer="10" shape="1420.97,1083.11 1436.49,1075.63" /><poly id="1004" color="blue" type="line" lineWidth="0.5" layer="10" shape="1458.89,1037.4 1465.39,1051.3" /><poly id="1005" color="blue" type="line" lineWidth="0.5" layer="10" shape="1478.14,1073.88 1466.18,1087.68" /><poly id="1006" color="blue" type="line" lineWidth="0.5" layer="10" shape="1444.79,1097.12 1427.21,1071.8" /><poly id="1007" color="blue" type="line" lineWidth="0.5" layer="10" shape="1442.89,1099.7 1424.01,1071.22" /><poly id="1008" color="blue" type="line" lineWidth="0.5" layer="10" shape="1458.89,1037.4 1462.6,1052.86" /><poly id="1009" color="blue" type="line" lineWidth="0.5" layer="10" shape="1478.14,1073.88 1469.38,1087.58" /><poly id="1010" color="blue" type="line" lineWidth="0.5" layer="10" shape="1476.71,1071.02 1460.74,1085.17" /><poly id="1011" color="blue" type="line" lineWidth="0.5" layer="10" shape="1420.97,1083.11 1424.01,1071.22" /><poly id="1012" color="blue" type="line" lineWidth="0.5" layer="10" shape="1469.97,1065.94 1469.38,1087.58" /><poly id="1013" color="blue" type="line" lineWidth="0.5" layer="10" shape="1448.03,1090.26 1424.65,1091.98" /><poly id="1014" color="blue" type="line" lineWidth="0.5" layer="10" shape="1442.89,1099.7 1424.65,1091.98" /><poly id="1015" color="blue" type="line" lineWidth="0.5" layer="10" shape="1455.79,1038.18 1459.8,1054.42" /><poly id="1016" color="blue" type="line" lineWidth="0.5" layer="10" shape="1475.27,1068.16 1457.83,1083.0" /><poly id="1017" color="blue" type="line" lineWidth="0.5" layer="10" shape="1455.79,1038.18 1453.73,1055.66" /><poly id="1018" color="blue" type="line" lineWidth="0.5" layer="10" shape="1466.92,1066.92 1466.18,1087.68" /><poly id="1019" color="blue" type="line" lineWidth="0.5" layer="10" shape="780.14,1348.71 781.36,1351.67" /><poly id="1020" color="blue" type="line" lineWidth="0.5" layer="10" shape="1478.14,1073.88 1472.58,1087.49" /><poly id="1021" color="blue" type="line" lineWidth="0.5" layer="10" shape="1447.94,1087.06 1423.42,1089.02" /><poly id="1022" color="blue" type="line" lineWidth="0.5" layer="10" shape="1434.69,1074.18 1422.2,1086.07" /><poly id="1023" color="blue" type="line" lineWidth="0.5" layer="10" shape="1469.97,1065.94 1472.58,1087.49" /><poly id="1024" color="blue" type="line" lineWidth="0.5" layer="10" shape="1446.69,1094.55 1430.41,1072.38" /></additional>